tests/data/dist/micro/ibr_pv_control.dss
! Three phase PVSystem with volt var InvControl.
Clear
Set DefaultBaseFrequency=60

New Circuit.ibr_pv_control basekv=0.416 pu=1.0 phases=3 bus1=sourcebus MVAsc3=2000 MVAsc1=2100

New Linecode.lc4 nphases=4 basefreq=60 units=km
~ rmatrix = (0.211 | 0.049 0.211 | 0.049 0.049 0.211 | 0.049 0.049 0.049 0.211)
~ xmatrix = (0.747 | 0.673 0.747 | 0.651 0.673 0.747 | 0.673 0.651 0.673 0.747)
~ cmatrix = (10.0 | 0.0 10.0 | 0.0 0.0 10.0 | 0.0 0.0 0.0 10.0)
~ normamps=185 emergamps=240

New Line.l1 bus1=sourcebus.1.2.3.0 bus2=loadbus.1.2.3.4 phases=4 linecode=lc4 length=0.15 units=km

New Load.la bus1=loadbus.1.4 phases=1 conn=wye kv=0.24 kw=8 pf=0.95 model=1 vminpu=0.8 vmaxpu=1.2
New Load.lb bus1=loadbus.2.4 phases=1 conn=wye kv=0.24 kw=6 pf=0.95 model=1 vminpu=0.8 vmaxpu=1.2
New Load.lc bus1=loadbus.3.4 phases=1 conn=wye kv=0.24 kw=10 pf=0.95 model=1 vminpu=0.8 vmaxpu=1.2

New PVSystem.pv1 bus1=loadbus.1.2.3.4 phases=3 conn=wye kv=0.416 kVA=30 Pmpp=24 irradiance=1 %Pmpp=100 kvarMax=12 kvarMaxAbs=12 WattPriority=No VarFollowInverter=Yes %PminNoVars=10 %PminkvarMax=50
New XYcurve.vv_pv1 npts=4 Xarray=[0.92 0.98 1.02 1.08] Yarray=[0.44 0 0 -0.44]
New InvControl.ivc_pv1 DERList=[PVSystem.pv1] mode=VOLTVAR vvc_curve1=vv_pv1 RefReactivePower=VARMAX voltage_curvex_ref=rated monVoltageCalc=AVG

Set VoltageBases=[0.416]
Calcvoltagebases
Solve
